  0
SECTION
  2
ENTITIES
999
DXF created from EnergyPlus
999
Program Version,EnergyPlus, Version 22.1.0-ed759b17ee, YMD=2025.02.10 10:23
999
Polygon Action,ThickPolyline
999
Color Scheme,Default
999
Text - True North
  0
TEXT
  8
1
  6
Continuous
 62
  3
 10
      -11.00000
 20
        3.00000
 30
        0.10000
 40
 .25
  1
True North
 41
 0.0
  7
MONOTXT
210
0.0
220
0.0
230
1.0
999
Text - Building Title
  0
TEXT
  8
1
  6
Continuous
 62
  3
 10
      -14.00000
 20
       -1.00000
 30
        0.10000
 40
 .4
  1
Building - US+SF+CZ7+hp+crawlspace+IECC_2021
 41
 0.0
  7
MONOTXT
210
0.0
220
0.0
230
1.0
999
North Arrow Stem
  0
3DFACE
  8
1
 62
  3
 10
      -10.00000
 20
        3.00000
 30
        0.10000
 11
      -10.00000
 21
        3.00000
 31
        0.00000
 12
      -10.00000
 22
        0.00000
 32
        0.00000
 13
      -10.00000
 23
        0.00000
 33
        0.10000
999
North Arrow Head 1
  0
3DFACE
  8
1
 62
  3
 10
      -10.00000
 20
        3.00000
 30
        0.10000
 11
      -10.00000
 21
        3.00000
 31
        0.00000
 12
      -10.50000
 22
        2.13397
 32
        0.00000
 13
      -10.50000
 23
        2.13397
 33
        0.10000
999
North Arrow Head 2
  0
3DFACE
  8
1
 62
  3
 10
      -10.00000
 20
        3.00000
 30
        0.10000
 11
      -10.00000
 21
        3.00000
 31
        0.00000
 12
       -9.50000
 22
        2.13397
 32
        0.00000
 13
       -9.50000
 23
        2.13397
 33
        0.10000
999
North Arrow Side 1
  0
3DFACE
  8
1
 62
  3
 10
      -10.50000
 20
        4.50000
 30
        0.10000
 11
      -10.50000
 21
        4.50000
 31
        0.00000
 12
      -10.50000
 22
        3.50000
 32
        0.00000
 13
      -10.50000
 23
        3.50000
 33
        0.10000
999
North Arrow Side 2
  0
3DFACE
  8
1
 62
  3
 10
      -10.50000
 20
        4.50000
 30
        0.10000
 11
      -10.50000
 21
        4.50000
 31
        0.00000
 12
       -9.50000
 22
        3.50000
 32
        0.00000
 13
       -9.50000
 23
        3.50000
 33
        0.10000
999
North Arrow Side 3
  0
3DFACE
  8
1
 62
  3
 10
       -9.50000
 20
        4.50000
 30
        0.10000
 11
       -9.50000
 21
        4.50000
 31
        0.00000
 12
       -9.50000
 22
        3.50000
 32
        0.00000
 13
       -9.50000
 23
        3.50000
 33
        0.10000
999
Zone Names
999
Zone=1:LIVING_ZONE
999
Zone=2:ATTIC_UNIT1
999
Zone=3:CRAWLSPACE_UNIT1
999
LIVING ZONE:WALL_LDF_1.UNIT1
  0
3DFACE
  8
LIVING_ZONE
 62
 43
 10
        0.00000
 20
        0.00000
 30
        2.74390
 11
        0.00000
 21
        0.00000
 31
        0.15244
 12
       12.13309
 22
        0.00000
 32
        0.15244
 13
       12.13309
 23
        0.00000
 33
        2.74390
999
LIVING ZONE:WINDOW_LDF_1.UNIT1
  0
3DFACE
  8
LIVING_ZONE
 62
143
 10
        1.00000
 20
        0.00000
 30
        2.59146
 11
        1.00000
 21
        0.00000
 31
        1.06707
 12
        3.70720
 22
        0.00000
 32
        1.06707
 13
        3.70720
 23
        0.00000
 33
        2.59146
999
LIVING ZONE:WALL_SDR_1.UNIT1
  0
3DFACE
  8
LIVING_ZONE
 62
 43
 10
       12.13309
 20
        0.00000
 30
        2.74390
 11
       12.13309
 21
        0.00000
 31
        0.15244
 12
       12.13309
 22
        9.09982
 32
        0.15244
 13
       12.13309
 23
        9.09982
 33
        2.74390
999
LIVING ZONE:WINDOW_SDR_1.UNIT1
  0
3DFACE
  8
LIVING_ZONE
 62
143
 10
       12.13309
 20
        1.00000
 30
        2.59146
 11
       12.13309
 21
        1.00000
 31
        1.06707
 12
       12.13309
 22
        3.70720
 32
        1.06707
 13
       12.13309
 23
        3.70720
 33
        2.59146
999
LIVING ZONE:WALL_LDB_1.UNIT1
  0
3DFACE
  8
LIVING_ZONE
 62
 43
 10
       12.13309
 20
        9.09982
 30
        2.74390
 11
       12.13309
 21
        9.09982
 31
        0.15244
 12
        0.00000
 22
        9.09982
 32
        0.15244
 13
        0.00000
 23
        9.09982
 33
        2.74390
999
LIVING ZONE:WINDOW_LDB_1.UNIT1
  0
3DFACE
  8
LIVING_ZONE
 62
143
 10
        9.39119
 20
        9.09982
 30
        2.59146
 11
        9.39119
 21
        9.09982
 31
        1.06707
 12
        6.68399
 22
        9.09982
 32
        1.06707
 13
        6.68399
 23
        9.09982
 33
        2.59146
999
LIVING ZONE:DOOR_LDB_UNIT1
  0
3DFACE
  8
LIVING_ZONE
 62
 45
 10
       11.63309
 20
        9.09982
 30
        2.28659
 11
       11.63309
 21
        9.09982
 31
        0.15244
 12
        9.89119
 22
        9.09982
 32
        0.15244
 13
        9.89119
 23
        9.09982
 33
        2.28659
999
LIVING ZONE:WALL_SDL_1.UNIT1
  0
3DFACE
  8
LIVING_ZONE
 62
 43
 10
        0.00000
 20
        9.09982
 30
        2.74390
 11
        0.00000
 21
        9.09982
 31
        0.15244
 12
        0.00000
 22
        0.00000
 32
        0.15244
 13
        0.00000
 23
        0.00000
 33
        2.74390
999
LIVING ZONE:WINDOW_SDL_1.UNIT1
  0
3DFACE
  8
LIVING_ZONE
 62
143
 10
        0.00000
 20
        8.09982
 30
        2.59146
 11
        0.00000
 21
        8.09982
 31
        1.06707
 12
        0.00000
 22
        5.39262
 32
        1.06707
 13
        0.00000
 23
        5.39262
 33
        2.59146
999
LIVING ZONE:WALL_LDF_2.UNIT1
  0
3DFACE
  8
LIVING_ZONE
 62
 43
 10
        0.00000
 20
        0.00000
 30
        5.33537
 11
        0.00000
 21
        0.00000
 31
        2.74390
 12
       12.13309
 22
        0.00000
 32
        2.74390
 13
       12.13309
 23
        0.00000
 33
        5.33537
999
LIVING ZONE:WINDOW_LDF_2.UNIT1
  0
3DFACE
  8
LIVING_ZONE
 62
143
 10
        1.00000
 20
        0.00000
 30
        5.18293
 11
        1.00000
 21
        0.00000
 31
        3.65854
 12
        3.70720
 22
        0.00000
 32
        3.65854
 13
        3.70720
 23
        0.00000
 33
        5.18293
999
LIVING ZONE:WALL_SDR_2.UNIT1
  0
3DFACE
  8
LIVING_ZONE
 62
 43
 10
       12.13309
 20
        0.00000
 30
        5.33537
 11
       12.13309
 21
        0.00000
 31
        2.74390
 12
       12.13309
 22
        9.09982
 32
        2.74390
 13
       12.13309
 23
        9.09982
 33
        5.33537
999
LIVING ZONE:WINDOW_SDR_2.UNIT1
  0
3DFACE
  8
LIVING_ZONE
 62
143
 10
       12.13309
 20
        1.00000
 30
        5.18293
 11
       12.13309
 21
        1.00000
 31
        3.65854
 12
       12.13309
 22
        3.70720
 32
        3.65854
 13
       12.13309
 23
        3.70720
 33
        5.18293
999
LIVING ZONE:WALL_LDB_2.UNIT1
  0
3DFACE
  8
LIVING_ZONE
 62
 43
 10
       12.13309
 20
        9.09982
 30
        5.33537
 11
       12.13309
 21
        9.09982
 31
        2.74390
 12
        0.00000
 22
        9.09982
 32
        2.74390
 13
        0.00000
 23
        9.09982
 33
        5.33537
999
LIVING ZONE:WINDOW_LDB_2.UNIT1
  0
3DFACE
  8
LIVING_ZONE
 62
143
 10
        9.39119
 20
        9.09982
 30
        5.18293
 11
        9.39119
 21
        9.09982
 31
        3.65854
 12
        6.68399
 22
        9.09982
 32
        3.65854
 13
        6.68399
 23
        9.09982
 33
        5.18293
999
LIVING ZONE:WALL_SDL_2.UNIT1
  0
3DFACE
  8
LIVING_ZONE
 62
 43
 10
        0.00000
 20
        9.09982
 30
        5.33537
 11
        0.00000
 21
        9.09982
 31
        2.74390
 12
        0.00000
 22
        0.00000
 32
        2.74390
 13
        0.00000
 23
        0.00000
 33
        5.33537
999
LIVING ZONE:WINDOW_SDL_2.UNIT1
  0
3DFACE
  8
LIVING_ZONE
 62
143
 10
        0.00000
 20
        8.09982
 30
        5.18293
 11
        0.00000
 21
        8.09982
 31
        3.65854
 12
        0.00000
 22
        5.39262
 32
        3.65854
 13
        0.00000
 23
        5.39262
 33
        5.18293
999
LIVING ZONE:INTER ZONE FLOOR 1
  0
3DFACE
  8
LIVING_ZONE
 62
  8
 10
       12.13309
 20
        0.00000
 30
        2.74390
 11
        0.00000
 21
        0.00000
 31
        2.74390
 12
        0.00000
 22
        9.09982
 32
        2.74390
 13
       12.13309
 23
        9.09982
 33
        2.74390
999
LIVING ZONE:FLOOR_UNIT1
  0
3DFACE
  8
LIVING_ZONE
 62
  8
 10
       12.13309
 20
        0.00000
 30
        0.15244
 11
        0.00000
 21
        0.00000
 31
        0.15244
 12
        0.00000
 22
        9.09982
 32
        0.15244
 13
       12.13309
 23
        9.09982
 33
        0.15244
999
LIVING ZONE:CEILING_UNIT1
  0
3DFACE
  8
LIVING_ZONE
 62
 15
 10
        0.00000
 20
        9.09982
 30
        5.33537
 11
        0.00000
 21
        0.00000
 31
        5.33537
 12
       12.13309
 22
        0.00000
 32
        5.33537
 13
       12.13309
 23
        9.09982
 33
        5.33537
999
LIVING ZONE:OVERHANG_SDR_1.UNIT1
  0
3DFACE
  8
LIVING_ZONE
 62
 13
 10
       12.14833
 20
        1.00000
 30
        2.59146
 11
       12.13309
 21
        1.00000
 31
        2.59146
 12
       12.13309
 22
        3.70720
 32
        2.59146
 13
       12.14833
 23
        3.70720
 33
        2.59146
999
LIVING ZONE:Mir-OVERHANG_SDR_1.UNIT1
  0
3DFACE
  8
LIVING_ZONE
 62
 13
 10
       12.14833
 20
        3.70720
 30
        2.59146
 11
       12.13309
 21
        3.70720
 31
        2.59146
 12
       12.13309
 22
        1.00000
 32
        2.59146
 13
       12.14833
 23
        1.00000
 33
        2.59146
999
LIVING ZONE:OVERHANG_SDR_2.UNIT1
  0
3DFACE
  8
LIVING_ZONE
 62
 13
 10
       12.14833
 20
        1.00000
 30
        5.18293
 11
       12.13309
 21
        1.00000
 31
        5.18293
 12
       12.13309
 22
        3.70720
 32
        5.18293
 13
       12.14833
 23
        3.70720
 33
        5.18293
999
LIVING ZONE:Mir-OVERHANG_SDR_2.UNIT1
  0
3DFACE
  8
LIVING_ZONE
 62
 13
 10
       12.14833
 20
        3.70720
 30
        5.18293
 11
       12.13309
 21
        3.70720
 31
        5.18293
 12
       12.13309
 22
        1.00000
 32
        5.18293
 13
       12.14833
 23
        1.00000
 33
        5.18293
999
ATTIC_UNIT1:ROOF_RIGHT_UNIT1
  0
3DFACE
  8
ATTIC_UNIT1
 62
 43
 10
       12.13309
 20
        4.54991
 30
        6.69956
 11
       12.13309
 21
        0.00000
 31
        5.33537
 12
       12.13309
 22
        9.09982
 32
        5.33537
 13
       12.13309
 23
        9.09982
 33
        5.33537
999
ATTIC_UNIT1:ROOF_LEFT_UNIT1
  0
3DFACE
  8
ATTIC_UNIT1
 62
 43
 10
        0.00000
 20
        4.54991
 30
        6.69956
 11
        0.00000
 21
        9.09982
 31
        5.33537
 12
        0.00000
 22
        0.00000
 32
        5.33537
 13
        0.00000
 23
        0.00000
 33
        5.33537
999
ATTIC_UNIT1:iz-CEILING_UNIT1
  0
3DFACE
  8
ATTIC_UNIT1
 62
  8
 10
       12.13309
 20
        9.09982
 30
        5.33537
 11
       12.13309
 21
        0.00000
 31
        5.33537
 12
        0.00000
 22
        0.00000
 32
        5.33537
 13
        0.00000
 23
        9.09982
 33
        5.33537
999
ATTIC_UNIT1:ROOF_FRONT_UNIT1
  0
3DFACE
  8
ATTIC_UNIT1
 62
 15
 10
        0.00000
 20
        4.54991
 30
        6.69956
 11
        0.00000
 21
        0.00000
 31
        5.33537
 12
       12.13309
 22
        0.00000
 32
        5.33537
 13
       12.13309
 23
        4.54991
 33
        6.69956
999
ATTIC_UNIT1:ROOF_BACK_UNIT1
  0
3DFACE
  8
ATTIC_UNIT1
 62
 15
 10
       12.13309
 20
        4.54991
 30
        6.69956
 11
       12.13309
 21
        9.09982
 31
        5.33537
 12
        0.00000
 22
        9.09982
 32
        5.33537
 13
        0.00000
 23
        4.54991
 33
        6.69956
999
CRAWLSPACE_UNIT1:BGWALL_UPPER_LDF
  0
3DFACE
  8
CRAWLSPACE_UNIT1
 62
 43
 10
        0.00000
 20
        0.00000
 30
        0.15244
 11
        0.00000
 21
        0.00000
 31
        0.00000
 12
       12.13309
 22
        0.00000
 32
        0.00000
 13
       12.13309
 23
        0.00000
 33
        0.15244
999
CRAWLSPACE_UNIT1:BGWALL_LOWER_LDF
  0
3DFACE
  8
CRAWLSPACE_UNIT1
 62
 43
 10
        0.00000
 20
        0.00000
 30
        0.00000
 11
        0.00000
 21
        0.00000
 31
       -0.45732
 12
       12.13309
 22
        0.00000
 32
       -0.45732
 13
       12.13309
 23
        0.00000
 33
        0.00000
999
CRAWLSPACE_UNIT1:BGWALL_UPPER_SDR
  0
3DFACE
  8
CRAWLSPACE_UNIT1
 62
 43
 10
       12.13309
 20
        0.00000
 30
        0.15244
 11
       12.13309
 21
        0.00000
 31
        0.00000
 12
       12.13309
 22
        9.09982
 32
        0.00000
 13
       12.13309
 23
        9.09982
 33
        0.15244
999
CRAWLSPACE_UNIT1:BGWALL_LOWER_SDR
  0
3DFACE
  8
CRAWLSPACE_UNIT1
 62
 43
 10
       12.13309
 20
        0.00000
 30
        0.00000
 11
       12.13309
 21
        0.00000
 31
       -0.45732
 12
       12.13309
 22
        9.09982
 32
       -0.45732
 13
       12.13309
 23
        9.09982
 33
        0.00000
999
CRAWLSPACE_UNIT1:BGWALL_UPPER_LDB
  0
3DFACE
  8
CRAWLSPACE_UNIT1
 62
 43
 10
       12.13309
 20
        9.09982
 30
        0.15244
 11
       12.13309
 21
        9.09982
 31
        0.00000
 12
        0.00000
 22
        9.09982
 32
        0.00000
 13
        0.00000
 23
        9.09982
 33
        0.15244
999
CRAWLSPACE_UNIT1:BGWALL_LOWER_LDB
  0
3DFACE
  8
CRAWLSPACE_UNIT1
 62
 43
 10
       12.13309
 20
        9.09982
 30
        0.00000
 11
       12.13309
 21
        9.09982
 31
       -0.45732
 12
        0.00000
 22
        9.09982
 32
       -0.45732
 13
        0.00000
 23
        9.09982
 33
        0.00000
999
CRAWLSPACE_UNIT1:BGWALL_UPPER_SDL
  0
3DFACE
  8
CRAWLSPACE_UNIT1
 62
 43
 10
        0.00000
 20
        9.09982
 30
        0.15244
 11
        0.00000
 21
        9.09982
 31
        0.00000
 12
        0.00000
 22
        0.00000
 32
        0.00000
 13
        0.00000
 23
        0.00000
 33
        0.15244
999
CRAWLSPACE_UNIT1:BGWALL_LOWER_SDL
  0
3DFACE
  8
CRAWLSPACE_UNIT1
 62
 43
 10
        0.00000
 20
        9.09982
 30
        0.00000
 11
        0.00000
 21
        9.09982
 31
       -0.45732
 12
        0.00000
 22
        0.00000
 32
       -0.45732
 13
        0.00000
 23
        0.00000
 33
        0.00000
999
CRAWLSPACE_UNIT1:EXTFLOOR_UNIT1
  0
3DFACE
  8
CRAWLSPACE_UNIT1
 62
  8
 10
       12.13309
 20
        0.00000
 30
       -0.45732
 11
        0.00000
 21
        0.00000
 31
       -0.45732
 12
        0.00000
 22
        9.09982
 32
       -0.45732
 13
       12.13309
 23
        9.09982
 33
       -0.45732
999
CRAWLSPACE_UNIT1:iz-FLOOR_UNIT1
  0
3DFACE
  8
CRAWLSPACE_UNIT1
 62
 15
 10
       12.13309
 20
        9.09982
 30
        0.15244
 11
        0.00000
 21
        9.09982
 31
        0.15244
 12
        0.00000
 22
        0.00000
 32
        0.15244
 13
       12.13309
 23
        0.00000
 33
        0.15244
  0
ENDSEC
  0
EOF
